  59
        -83.43306233
 Ni         0.0105012094        1.5052730982       -0.4453798245
 N          1.9043197645        0.8372124609        0.3487196463
 C          2.3409206302       -0.3719855602        0.3665772222
 N          3.5579419272       -0.7485630378        0.8352658093
 C          3.9657302441       -2.1335934046        0.9024324601
 C          4.2640122134       -2.7415773571       -0.4724992029
 C          3.0005769839       -3.2132291864       -1.1856597639
 C          1.9990536679       -2.0917474317       -1.4484777131
 C          1.4406685145       -1.4467661974       -0.1760874555
 C          4.5755433511        0.2343673876        1.1552202345
 C          4.2367482827        1.5684803800        0.5106287201
 C          2.7814429482        1.8911056427        0.8302443268
 H          4.8631381298       -2.1737218292        1.5252889387
 H          3.1945249275       -2.7253776229        1.4054045935
 H          4.9374213994       -3.5918058247       -0.3443411710
 H          4.7775630833       -1.9969937933       -1.0845483191
 H          2.5206981820       -3.9892213480       -0.5823108062
 H          3.2815881663       -3.6670080803       -2.1389044291
 H          2.4605435547       -1.3182510320       -2.0651007212
 H          1.1650062138       -2.5061085676       -2.0191400943
 H          0.4950445449       -0.9473930175       -0.4180191060
 H          1.2418667643       -2.2101460054        0.5797782575
 H          5.5429572852       -0.1284328442        0.7903703826
 H          4.6468047394        0.3482961626        2.2466420920
 H          4.3498299448        1.4939074746       -0.5730254436
 H          4.9030992333        2.3478962859        0.8786624283
 H          2.4812567507        2.8282673129        0.3555593858
 H          2.6475736121        2.0026874309        1.9144436142
 N         -1.3974234979        0.3371915051        0.7087547527
 C         -2.5897129661        0.0218435840        0.3434878043
 N         -3.4977206167       -0.6079557283        1.1293248511
 C         -4.8521025660       -0.8611941338        0.6918884641
 C         -4.9450960757       -1.9734590091       -0.3586688071
 C         -4.6474219562       -1.4708136260       -1.7682283755
 C         -3.2447368453       -0.8878207627       -1.9207235653
 C         -2.9969693881        0.3560277780       -1.0625608238
 C         -3.1302897541       -1.1486037702        2.4233397855
 C         -1.6195824499       -1.2876281385        2.5249495934
 C         -0.9981194739        0.0280759542        2.0688946486
 H         -5.4285864092       -1.1424784370        1.5768891255
 H         -5.2935977843        0.0570459192        0.2933270087
 H         -5.9528452425       -2.3936421472       -0.3385518999
 H         -4.2456003323       -2.7697378222       -0.0939054238
 H         -5.3823581702       -0.7071258747       -2.0354996691
 H         -4.7657619693       -2.2991826961       -2.4708398425
 H         -2.4978867432       -1.6455333224       -1.6738677152
 H         -3.1000626491       -0.6166262091       -2.9681007440
 H         -2.1580708169        0.9281423759       -1.4839685543
 H         -3.8768118166        1.0018081863       -1.0678077558
 H         -3.6104781483       -2.1263453825        2.5450457531
 H         -3.5022264401       -0.4879476173        3.2193150242
 H         -1.2798410012       -2.0896802874        1.8654238180
 H         -1.3297961917       -1.5287826367        3.5475245819
 H          0.0918539328       -0.0202810359        2.1051637038
 H         -1.3196798479        0.8420144913        2.7314982954
 C          0.4565770867        1.2133223066       -2.1383682835
 O          1.1811105175        1.1779334364       -3.0341162034
 C         -0.5643339895        3.0669526699        0.1819305984
 O         -1.3114350160        3.8695919474        0.5284934045
