  59
  -83.433062333099997       0.36821235027454607      !
 Ni         0.0105012094        1.5052730982       -0.4453798245
 N          1.9043197645        0.8372124609        0.3487196463
 C          2.3409206302       -0.3719855602        0.3665772222
 N          3.5579419272       -0.7485630378        0.8352658093
 C          3.9657302441       -2.1335934046        0.9024324601
 C          4.2640122134       -2.7415773571       -0.4724992029
 C          3.0005769839       -3.2132291864       -1.1856597639
 C          1.9990536679       -2.0917474317       -1.4484777131
 C          1.4406685145       -1.4467661974       -0.1760874555
 C          4.5755433511        0.2343673876        1.1552202345
 C          4.2367482827        1.5684803800        0.5106287201
 C          2.7814429482        1.8911056427        0.8302443268
 H          4.8631381298       -2.1737218292        1.5252889387
 H          3.1945249275       -2.7253776229        1.4054045935
 H          4.9374213994       -3.5918058247       -0.3443411710
 H          4.7775630833       -1.9969937933       -1.0845483191
 H          2.5206981820       -3.9892213480       -0.5823108062
 H          3.2815881663       -3.6670080803       -2.1389044291
 H          2.4605435547       -1.3182510320       -2.0651007212
 H          1.1650062138       -2.5061085676       -2.0191400943
 H          0.4950445449       -0.9473930175       -0.4180191060
 H          1.2418667643       -2.2101460054        0.5797782575
 H          5.5429572852       -0.1284328442        0.7903703826
 H          4.6468047394        0.3482961626        2.2466420920
 H          4.3498299448        1.4939074746       -0.5730254436
 H          4.9030992333        2.3478962859        0.8786624283
 H          2.4812567507        2.8282673129        0.3555593858
 H          2.6475736121        2.0026874309        1.9144436142
 N         -1.3974234979        0.3371915051        0.7087547527
 C         -2.5897129661        0.0218435840        0.3434878043
 N         -3.4977206167       -0.6079557283        1.1293248511
 C         -4.8521025660       -0.8611941338        0.6918884641
 C         -4.9450960757       -1.9734590091       -0.3586688071
 C         -4.6474219562       -1.4708136260       -1.7682283755
 C         -3.2447368453       -0.8878207627       -1.9207235653
 C         -2.9969693881        0.3560277780       -1.0625608238
 C         -3.1302897541       -1.1486037702        2.4233397855
 C         -1.6195824499       -1.2876281385        2.5249495934
 C         -0.9981194739        0.0280759542        2.0688946486
 H         -5.4285864092       -1.1424784370        1.5768891255
 H         -5.2935977843        0.0570459192        0.2933270087
 H         -5.9528452425       -2.3936421472       -0.3385518999
 H         -4.2456003323       -2.7697378222       -0.0939054238
 H         -5.3823581702       -0.7071258747       -2.0354996691
 H         -4.7657619693       -2.2991826961       -2.4708398425
 H         -2.4978867432       -1.6455333224       -1.6738677152
 H         -3.1000626491       -0.6166262091       -2.9681007440
 H         -2.1580708169        0.9281423759       -1.4839685543
 H         -3.8768118166        1.0018081863       -1.0678077558
 H         -3.6104781483       -2.1263453825        2.5450457531
 H         -3.5022264401       -0.4879476173        3.2193150242
 H         -1.2798410012       -2.0896802874        1.8654238180
 H         -1.3297961917       -1.5287826367        3.5475245819
 H          0.0918539328       -0.0202810359        2.1051637038
 H         -1.3196798479        0.8420144913        2.7314982954
 C          0.4565770867        1.2133223066       -2.1383682835
 O          1.1811105175        1.1779334364       -3.0341162034
 C         -0.5643339895        3.0669526699        0.1819305984
 O         -1.3114350160        3.8695919474        0.5284934045
  59
  -83.432569924299997       0.21867691323286084      !
 Ni         0.0660982430        1.2383360425       -0.5376505584
 N          1.2626834519       -0.3997134433        0.1742945901
 C          2.3804117816       -0.7863683582       -0.3335765823
 N          3.2223456019       -1.6720968157        0.2546933802
 C          4.4103079580       -2.1635346777       -0.4069487921
 C          5.5282816439       -1.1196394498       -0.4987614723
 C          5.3373308399       -0.1682324328       -1.6760448109
 C          4.0418102527        0.6348682350       -1.6002958109
 C          2.7740424001       -0.2225482386       -1.6687053415
 C          3.0883628101       -2.0265366761        1.6553803739
 C          2.1313198833       -1.0743200311        2.3539522656
 C          0.8948763798       -0.9356467542        1.4728889272
 H          4.7587758399       -3.0287617679        0.1636896615
 H          4.1543579314       -2.5155325205       -1.4105752051
 H          6.4846240485       -1.6352500392       -0.6098017059
 H          5.5607548648       -0.5513301632        0.4334746731
 H          5.3484600196       -0.7448031790       -2.6052058412
 H          6.1811667312        0.5247535943       -1.7104000976
 H          4.0228645001        1.2252496359       -0.6825818450
 H          4.0247042244        1.3360515274       -2.4367842766
 H          1.9337458963        0.4127746482       -1.9804473709
 H          2.8939187669       -1.0176938895       -2.4078770074
 H          4.0775124542       -1.9834780884        2.1258299889
 H          2.7209948913       -3.0598865961        1.7365312491
 H          2.5967379527       -0.0924823713        2.4632986327
 H          1.8755954439       -1.4524415295        3.3435399460
 H          0.1608306946       -0.2649935746        1.9235993610
 H          0.4248476998       -1.9188002791        1.3384601782
 N         -1.8091551155        0.9564224013        0.5121434757
 C         -2.6811066457        0.0604530718        0.2091338025
 N         -3.9847786989        0.0837743273        0.5843777860
 C         -4.9548593838       -0.8592134111        0.0757193075
 C         -4.8352543862       -2.2467942554        0.7140299423
 C         -3.7343417877       -3.0857334858        0.0736004361
 C         -2.3519131246       -2.4478174687        0.1856407129
 C         -2.2116780934       -1.1290828432       -0.5810062319
 C         -4.4834756942        1.1011640199        1.4870481938
 C         -3.3342298581        1.6710215527        2.3020468074
 C         -2.2270391822        2.0790078926        1.3357236478
 H         -5.9451839480       -0.4461338778        0.2834374194
 H         -4.8594775684       -0.9470520158       -1.0110645487
 H         -5.7882488087       -2.7686657671        0.6049238577
 H         -4.6381894942       -2.1292240886        1.7820752330
 H         -3.9721125104       -3.2413839106       -0.9818937246
 H         -3.7130722430       -4.0676024190        0.5531115643
 H         -2.1114272090       -2.2785824045        1.2377350756
 H         -1.6192683366       -3.1545469099       -0.2110220608
 H         -1.1520528278       -0.9445448787       -0.7939149115
 H         -2.7370548987       -1.1913338230       -1.5361426404
 H         -5.2314567443        0.6473925376        2.1471093030
 H         -4.9749640264        1.9021363248        0.9165231099
 H         -2.9534134835        0.9048652215        2.9817518068
 H         -3.6717825531        2.5230645467        2.8914391195
 H         -1.3538738614        2.4421379190        1.8838365507
 H         -2.5732680973        2.8934213412        0.6870668522
 C         -0.6435141937        1.3847981233       -2.1583297403
 O         -1.4481010767        1.6769478447       -2.9294386071
 C          1.1420313650        2.4486801093        0.1973566806
 O          2.1524409072        2.9036882596        0.5099598023
  59
  -83.431831692499998       0.10012328492420530      !
 Ni        -0.0210277203        1.3531737802       -0.4696756012
 N          2.0109042748        0.6128402859       -0.4135597366
 C          2.5557547613        0.0110386196        0.5830776147
 N          3.8882859763       -0.2140855526        0.7288964067
 C          4.4377931819       -0.8784853702        1.8876197189
 C          4.1124300155       -2.3749123028        1.9507295232
 C          2.7363799353       -2.6453949986        2.5497512315
 C          1.6011374959       -2.0350367944        1.7332322958
 C          1.6396301090       -0.5058968611        1.6577698628
 C          4.7975215954        0.1499805303       -0.3377476624
 C          4.2701453074        1.3923391415       -1.0401660741
 C          2.8450545441        1.1065152305       -1.4972378888
 H          5.5222780051       -0.7497657425        1.8495372288
 H          4.0822114208       -0.3914198426        2.8020804582
 H          4.8683929086       -2.8717976532        2.5623587985
 H          4.1688052724       -2.7943004699        0.9438609193
 H          2.7047268666       -2.2448277401        3.5663923171
 H          2.5844669998       -3.7255380502        2.6179177195
 H          1.6206471434       -2.4448362411        0.7211439254
 H          0.6540195894       -2.3307826459        2.1903864201
 H          0.6393836748       -0.1388337541        1.3947291449
 H          1.9083271254       -0.0870272047        2.6295423596
 H          4.8953113717       -0.6763301849       -1.0568824152
 H          5.7864405400        0.3426888453        0.0890013193
 H          4.9053851783        1.6536630619       -1.8861283389
 H          4.2612282919        2.2270476897       -0.3364934763
 H          2.8460524007        0.3580163789       -2.3008367746
 H          2.3823488966        2.0147968735       -1.8928658508
 N         -1.1999191241       -0.4615083111       -0.4659819974
 C         -2.3825868616       -0.6114954314        0.0145671498
 N         -3.1507168908       -1.7228537245       -0.1336373855
 C         -4.5367152587       -1.7520172180        0.2775446123
 C         -5.4250333480       -0.7747210301       -0.5010273765
 C         -5.4066442552        0.6319983412        0.0896836574
 C         -4.0320806481        1.2911801761        0.0365027950
 C         -2.9514704973        0.5285761508        0.8096437847
 C         -2.6934684499       -2.8128868084       -0.9706057351
 C         -1.1754644296       -2.8844395043       -0.9143971963
 C         -0.6294668377       -1.5122445202       -1.2892311677
 H         -4.8956051925       -2.7720936038        0.1200427099
 H         -4.6129425775       -1.5399331605        1.3493184370
 H         -6.4510080629       -1.1489282342       -0.4892949659
 H         -5.0927336867       -0.7428553919       -1.5406993219
 H         -5.7434967367        0.5843926958        1.1291287656
 H         -6.1182817770        1.2548527670       -0.4570023090
 H         -3.7080948239        1.4008312233       -0.9999605829
 H         -4.1140375282        2.2945216431        0.4584411966
 H         -2.1130582612        1.2131035834        0.9906957647
 H         -3.3400900107        0.1856870936        1.7704180655
 H         -3.0265769557       -2.6707613939       -2.0086936701
 H         -3.1338505174       -3.7449485474       -0.6004011819
 H         -0.8051770202       -3.6519680109       -1.5942117555
 H         -0.8648148181       -3.1355938157        0.1018340543
 H         -0.8544455430       -1.2953921362       -2.3416677241
 H          0.4562211233       -1.4767687202       -1.1739384024
 C         -0.6595936820        1.8206260917       -2.0637113242
 O         -1.4849246884        1.9529355636       -2.8551515472
 C          0.1975578675        2.5378564529        0.8350408904
 O          0.7682814550        3.3470379997        1.4242464616
  59
  -83.431807795500006        9.7623143738603688E-002 !
 Ni        -0.0358610530        0.0774070962       -0.7360810825
 N          1.6800586680        0.0060120953        0.5675576694
 C          2.8558303454       -0.4059513988        0.2446632786
 N          3.9602509528       -0.2548260819        1.0175843134
 C          5.2384029695       -0.8257997030        0.6559626759
 C          5.9181055723       -0.0973424086       -0.5084280158
 C          5.3946307377       -0.5586039218       -1.8652262561
 C          3.8997568280       -0.3142200153       -2.0519735392
 C          3.0153744755       -1.0992652744       -1.0778454874
 C          3.9741396804        0.6601203803        2.1436087376
 C          2.7619455905        1.5755680999        2.0951722081
 C          1.5374454986        0.7060670485        1.8315894183
 H          5.8735305737       -0.7757974730        1.5446747972
 H          5.1124638162       -1.8826893287        0.4037752940
 H          6.9936687718       -0.2810445964       -0.4609124230
 H          5.7568907286        0.9771964099       -0.3969076881
 H          5.6007588484       -1.6261986844       -1.9818576151
 H          5.9398974923       -0.0318704554       -2.6518534931
 H          3.6804582959        0.7502430382       -1.9515607097
 H          3.6299274342       -0.6057663714       -3.0688215278
 H          2.0033524921       -1.1695840382       -1.4982293827
 H          3.4025996421       -2.1118023535       -0.9452714769
 H          4.8970725642        1.2502706089        2.1065840560
 H          3.9783058644        0.0857216738        3.0813726847
 H          2.8679158479        2.2904734120        1.2764714938
 H          2.6643760638        2.1263532811        3.0303905960
 H          0.6289986466        1.3108246148        1.7879429602
 H          1.4233001383       -0.0259988248        2.6422637593
 N         -1.6160377957       -0.1509234551        0.7138596349
 C         -2.8120666653        0.3118518027        0.6048779253
 N         -3.8383546357       -0.0146732426        1.4294670448
 C         -5.1366042113        0.6140519190        1.3310279873
 C         -5.9388775216        0.1567352755        0.1081459160
 C         -5.5426087516        0.9083412094       -1.1590613774
 C         -4.0771705804        0.7197104042       -1.5414500149
 C         -3.0898552351        1.2773907106       -0.5112053906
 C         -3.7567793030       -1.1560636385        2.3215350372
 C         -2.5650709192       -2.0264892568        1.9580773091
 C         -1.3614964718       -1.1083504077        1.7754324699
 H         -5.6823132630        0.3648068671        2.2452508389
 H         -5.0192105846        1.7013151232        1.3070142015
 H         -7.0013675756        0.3202538671        0.3011606108
 H         -5.7859552490       -0.9151646577       -0.0358126462
 H         -5.7418761196        1.9742518087       -1.0176185419
 H         -6.1704555323        0.5644614227       -1.9843416076
 H         -3.8659630844       -0.3395106436       -1.6985624246
 H         -3.9032241039        1.2288438565       -2.4913471414
 H         -2.1229254114        1.4451788960       -1.0038090070
 H         -3.4468046062        2.2334608483       -0.1221990322
 H         -4.6858671630       -1.7322489637        2.2420687025
 H         -3.6662700960       -0.8032319336        3.3591507297
 H         -2.7566585640       -2.5459225365        1.0167633131
 H         -2.3849301869       -2.7676582428        2.7363968999
 H         -0.4679645720       -1.6798287851        1.5149338731
 H         -1.1631726368       -0.5694577477        2.7116306824
 C         -0.7012990054       -1.2905566158       -1.6500731569
 O         -1.5558835204       -1.9459867512       -2.0610224407
 C          0.5496807578        1.6163782708       -1.3972168484
 O          1.3649078731        2.3554210618       -1.7409633054
  59
  -83.431569841400005        7.5892115025408130E-002 !
 Ni        -0.0018045210        1.0764612731       -0.6365610666
 N          1.5368887613       -0.4299071473       -0.5520101027
 C          2.7810855641       -0.2642474219       -0.2726288649
 N          3.7117909128       -1.2510299168       -0.2871125455
 C          5.1161051273       -0.9899920135       -0.0643934217
 C          5.4440450361       -0.6658678645        1.3973446286
 C          5.1762358986        0.7955849056        1.7450021752
 C          3.7182981483        1.2068212802        1.5556041348
 C          3.2350988452        1.1159205876        0.1053007340
 C          3.3370619004       -2.6468339806       -0.4077062461
 C          1.8492039869       -2.8204488728       -0.1476559759
 C          1.1109363543       -1.7577892962       -0.9545221616
 H          5.6618806818       -1.8852975499       -0.3736095698
 H          5.4480811161       -0.1679202665       -0.7053802715
 H          6.4984016597       -0.8850849196        1.5787852648
 H          4.8513487325       -1.3154365600        2.0457278225
 H          5.8101175575        1.4311004015        1.1210065184
 H          5.4617574314        0.9689772100        2.7853901922
 H          3.0735596675        0.5900705903        2.1856774689
 H          3.6089482176        2.2401259531        1.8905753783
 H          2.3566084379        1.7609775804       -0.0283928306
 H          4.0128005411        1.4666844396       -0.5757276842
 H          3.9193425807       -3.2311615789        0.3146974282
 H          3.5883081650       -3.0086676437       -1.4149495449
 H          1.6400859117       -2.6697316349        0.9141330515
 H          1.5314707283       -3.8247620631       -0.4278598467
 H          0.0311813085       -1.8314952873       -0.8141826914
 H          1.3193264604       -1.8930416942       -2.0242606440
 N         -1.4906329800        0.0025471551        0.5138748929
 C         -2.7622655110        0.0693617037        0.3357655691
 N         -3.6954404503       -0.4477804095        1.1750626137
 C         -5.0934989705       -0.5207228411        0.8132657161
 C         -5.3579534302       -1.4234239607       -0.3976456975
 C         -5.1773508750       -0.6976785022       -1.7278932910
 C         -3.7490361130       -0.2168768981       -1.9658068153
 C         -3.2503845876        0.7651304018       -0.9025128000
 C         -3.3023617046       -1.0871954540        2.4137212154
 C         -1.9559350134       -0.5412649199        2.8621834250
 C         -0.9880447931       -0.6793911193        1.6936692280
 H         -5.6282551253       -0.9167213616        1.6797320721
 H         -5.4874235929        0.4821632035        0.6141846518
 H         -6.3830288497       -1.7954274512       -0.3372557380
 H         -4.6872704920       -2.2843254433       -0.3516298558
 H         -5.8543740947        0.1602461863       -1.7575993056
 H         -5.4651169454       -1.3700601718       -2.5396083079
 H         -3.0677069802       -1.0694777267       -2.0033211468
 H         -3.7087639950        0.2756889088       -2.9390616562
 H         -2.3819706295        1.3079953654       -1.2999503190
 H         -4.0272194509        1.4918851697       -0.6601130010
 H         -3.2441220298       -2.1778357999        2.2812719985
 H         -4.0670642746       -0.8814829610        3.1708549183
 H         -1.5981753480       -1.0829121479        3.7378674212
 H         -2.0572957213        0.5150899418        3.1186046633
 H         -0.8406696829       -1.7428087982        1.4608764378
 H         -0.0123662174       -0.2535434494        1.9414586176
 C          0.0793096864        1.1373411835       -2.4106660442
 O          0.5977959008        1.1368233347       -3.4383989449
 C         -0.1470146964        2.4652922159        0.4599069042
 O         -0.7127292895        3.2069693950        1.1365994781
  59
  -83.431289004899995        5.6381047062385531E-002 !
 Ni         0.0207900979        1.2001261249       -0.6704759502
 N          1.4597895841       -0.4014377886       -0.5006498536
 C          2.7177665925       -0.2958421754       -0.2572268736
 N          3.5856122709       -1.3373189928       -0.2128892146
 C          5.0056124267       -1.1490284229       -0.0174383484
 C          5.3653430277       -0.7427235458        1.4161108024
 C          5.1969011028        0.7544396350        1.6580746833
 C          3.7671090075        1.2463269833        1.4477348216
 C          3.2611941915        1.0773565669        0.0123541837
 C          3.1232171922       -2.7107156546       -0.2623905402
 C          1.6372237814       -2.7807457902        0.0532813975
 C          0.9315529535       -1.7223495360       -0.7877891008
 H          5.4925447919       -2.0959693040       -0.2643283421
 H          5.3821326594       -0.3966488119       -0.7169126633
 H          6.4043579499       -1.0175083177        1.6098929176
 H          4.7362496290       -1.3034486053        2.1114397124
 H          5.8644504504        1.2998862955        0.9858041141
 H          5.5040532111        0.9835051906        2.6813625244
 H          3.0898349193        0.7251878918        2.1279201899
 H          3.7303882896        2.3072732889        1.7022145436
 H          2.4213666497        1.7637668491       -0.1605175127
 H          4.0496740494        1.3277386047       -0.6998189627
 H          3.6932203296       -3.3001525651        0.4651698985
 H          3.3158721518       -3.1286318300       -1.2608411047
 H          1.4744945398       -2.5650003618        1.1121515884
 H          1.2528846653       -3.7780028686       -0.1612446300
 H         -0.1422500233       -1.7124020948       -0.5899146555
 H          1.0724090844       -1.9402348269       -1.8547127936
 N         -1.4573756737        0.2403092549        0.5786593561
 C         -2.7171891132        0.1284286566        0.3479644104
 N         -3.6106644613       -0.4361590396        1.1981284605
 C         -5.0300797839       -0.4540294308        0.9243668186
 C         -5.4155706987       -1.4395759765       -0.1844945555
 C         -5.2137116603       -0.8568880435       -1.5802825076
 C         -3.7669094363       -0.4667256252       -1.8718297385
 C         -3.2328511141        0.6447170500       -0.9639200059
 C         -3.1805207471       -1.1370441370        2.3922972034
 C         -1.7036177873       -1.4869438644        2.2972387535
 C         -0.9555386224       -0.2337478633        1.8552280800
 H         -5.5332142441       -0.7321926771        1.8540515671
 H         -5.3714554568        0.5504711550        0.6567510238
 H         -6.4663607411       -1.7115367361       -0.0637849245
 H         -4.8201918465       -2.3488068598       -0.0727793545
 H         -5.8504525972        0.0245943159       -1.6924364331
 H         -5.5391118294       -1.5921979815       -2.3201166341
 H         -3.1197318497       -1.3419563212       -1.7822936698
 H         -3.7079781258       -0.1234146933       -2.9063974697
 H         -2.3729815792        1.1280995370       -1.4469824972
 H         -3.9988951370        1.4060462640       -0.8055532575
 H         -3.7797784743       -2.0486050874        2.5001393194
 H         -3.3617977456       -0.5072064636        3.2749751184
 H         -1.5579857718       -2.2732846864        1.5524446576
 H         -1.3389372412       -1.8473983591        3.2591779706
 H          0.1139669855       -0.4280818650        1.7521931427
 H         -1.0801098913        0.5581019255        2.6056388465
 C          0.0810861434        1.1633447287       -2.4443150516
 O          0.5926430839        1.1122443161       -3.4748056552
 C         -0.0169278336        2.6824281569        0.3056567283
 O         -0.5116484831        3.5369289800        0.8982632557
  59
  -83.431118197800004        4.7058234418933656E-002 !
 Ni        -0.0434088132        0.2173914388       -0.9703778821
 N          1.5905979565        0.1370736536        0.4404101312
 C          2.7458294254       -0.3938700551        0.2531452137
 N          3.7682015262       -0.3748014356        1.1480696946
 C          5.1011442122       -0.8066373890        0.7896722028
 C          5.7422892023        0.0490982796       -0.3090721207
 C          5.3529097671       -0.4070831159       -1.7122745173
 C          3.8607122326       -0.2726160514       -1.9992963036
 C          2.9760785543       -1.0928262759       -1.0554344478
 C          3.6283028079        0.3312836541        2.4052052289
 C          2.1662360961        0.3374599723        2.8239889925
 C          1.3512066123        0.8878735893        1.6599693063
 H          5.7101264479       -0.7493346391        1.6951279950
 H          5.0832355309       -1.8548984866        0.4725172167
 H          6.8282686232       -0.0092802097       -0.2085089202
 H          5.4488541223        1.0910752657       -0.1649723463
 H          5.6518490567       -1.4512389870       -1.8408883224
 H          5.9080116865        0.1849353991       -2.4435296044
 H          3.5591088055        0.7747564250       -1.9388397338
 H          3.6749253414       -0.6051480212       -3.0222478964
 H          1.9840529346       -1.1949705120       -1.5146558693
 H          3.3983187937       -2.0879953368       -0.9044449218
 H          3.9974511804        1.3628605724        2.3120195977
 H          4.2388941248       -0.1775042738        3.1594690885
 H          2.0303830979        0.9437434599        3.7197045348
 H          1.8464049748       -0.6844069032        3.0413951221
 H          1.6152001228        1.9391209157        1.4834573683
 H          0.2816190297        0.8532649909        1.8795969877
 N         -1.5528235133       -0.3533955784        0.4659477346
 C         -2.7047278551        0.1912011675        0.6332094096
 N         -3.6481134063       -0.2322828713        1.5149157771
 C         -4.9952149473        0.2937777191        1.4979355107
 C         -5.7465104547       -0.0017209250        0.1945514603
 C         -5.4647765740        1.0302877185       -0.8937289522
 C         -4.0056256264        1.0581680804       -1.3378740554
 C         -3.0253814911        1.3917911051       -0.2091553687
 C         -3.4227536767       -1.4192287607        2.3143073585
 C         -1.9314411927       -1.5905979742        2.5586000276
 C         -1.2320169884       -1.5614252355        1.2050392804
 H         -5.5278383996       -0.1640117277        2.3350325195
 H         -4.9777782492        1.3749368391        1.6725469756
 H         -6.8185591610       -0.0098706050        0.4031079182
 H         -5.4672897275       -0.9964866763       -0.1590355136
 H         -5.7480613053        2.0201346587       -0.5248604369
 H         -6.0933340008        0.8113854864       -1.7599289726
 H         -3.7256583611        0.0958272195       -1.7704715170
 H         -3.8979830597        1.8099219849       -2.1219652456
 H         -2.0728845693        1.6998576128       -0.6598562013
 H         -3.4086457023        2.2126023434        0.3997772056
 H         -3.8258441912       -2.3082941102        1.8081134757
 H         -3.9544342899       -1.3037339367        3.2654058024
 H         -1.7373475600       -2.5276871985        3.0806337948
 H         -1.5671674663       -0.7650410697        3.1746686181
 H         -1.5380024356       -2.4307920686        0.6079616424
 H         -0.1471846778       -1.6131195852        1.3232405761
 C         -0.5908218417       -1.0280578553       -2.1100668922
 O         -1.3958032488       -1.6086839774       -2.6958150448
 C          0.4303173411        1.8441594772       -1.4980698049
 O          1.1927413802        2.6386942371       -1.8381836628
  59
  -83.430865925600003        3.6032911323056825E-002 !
 Ni         0.0041969207        0.9081435513       -0.5128471987
 N          1.5935141978       -0.5359609683       -0.2497815888
 C          2.8504335470       -0.2639355110       -0.2252904177
 N          3.8483601512       -1.1817853259       -0.2909560979
 C          5.2307345377       -0.8286174864       -0.0562963854
 C          5.4928066566       -0.3264278978        1.3684317406
 C          5.2091587246        1.1639311275        1.5327669128
 C          3.7462703961        1.5301986223        1.3012965361
 C          3.2439772515        1.1805429467       -0.1020667572
 C          3.5515425377       -2.5882015053       -0.4693869110
 C          2.1979456844       -2.7403877915       -1.1445072177
 C          1.1881375607       -1.9272140844       -0.3441485035
 H          5.8254659148       -1.7275519844       -0.2344145533
 H          5.5575724140       -0.0704749422       -0.7767643874
 H          6.5399175228       -0.5135399019        1.6161780023
 H          4.8772648059       -0.8995076765        2.0652847411
 H          5.8341481268        1.7226895251        0.8310246113
 H          5.4962040065        1.4694592121        2.5417843447
 H          3.1138851975        1.0275027973        2.0360818112
 H          3.6320982957        2.6051795037        1.4530860759
 H          2.3313065321        1.7562481730       -0.3070878331
 H          3.9911320889        1.4461610840       -0.8514691658
 H          3.5514631209       -3.1061799897        0.5011134988
 H          4.3373259153       -3.0352077150       -1.0884687121
 H          1.9113156118       -3.7909792810       -1.1907279158
 H          2.2494574171       -2.3444032788       -2.1606150197
 H          1.0982764830       -2.3426482220        0.6684899760
 H          0.2006656222       -1.9632001904       -0.8105940740
 N         -1.5959426255       -0.0557585639        0.5792693329
 C         -2.8511054047        0.0758084228        0.3306746962
 N         -3.8547843254       -0.3353325113        1.1468093466
 C         -5.2359064242       -0.3426377564        0.7186875916
 C         -5.5007676862       -1.2979487262       -0.4508978782
 C         -5.2091845682       -0.6666120748       -1.8091958622
 C         -3.7429435778       -0.2896220319       -1.9983457494
 C         -3.2354227975        0.7236519519       -0.9690127888
 C         -3.5675467444       -0.9102543067        2.4448906538
 C         -2.2093664199       -0.4261499256        2.9266224814
 C         -1.2005987067       -0.7015664038        1.8183719287
 H         -5.8356037654       -0.6528688685        1.5775301998
 H         -5.5547949306        0.6689810579        0.4435880107
 H         -6.5499121191       -1.6001497026       -0.4226143067
 H         -4.8913019906       -2.1949677531       -0.3210882247
 H         -5.8272889513        0.2278550563       -1.9238216716
 H         -5.4995165312       -1.3681196901       -2.5949605284
 H         -3.1173613078       -1.1833543279       -1.9494254818
 H         -3.6232522060        0.1386819888       -2.9952826721
 H         -2.3176346611        1.1901745397       -1.3517416342
 H         -3.9765587943        1.5081845263       -0.8090040505
 H         -3.5805507038       -2.0088201408        2.3888315294
 H         -4.3513854907       -0.6005255288        3.1450928285
 H         -1.9299878915       -0.9331478089        3.8501755589
 H         -2.2490835068        0.6488215221        3.1131975414
 H         -1.1240699998       -1.7839695360        1.6487316553
 H         -0.2090947543       -0.3336285921        2.0930173597
 C          0.2055682878        0.7956388283       -2.2740496910
 O          0.7979244034        0.6488715324       -3.2511408915
 C         -0.1910363169        2.3558877807        0.4974598046
 O         -0.7794146381        3.1183888449        1.1294892721
